
     RDKit          3D

 34 34  0  0  0  0  0  0  0  0999 V2000
    4.4572    1.6895    0.1239 C   0  0  0  0  0  0  0  0  0  0  0  0
    4.1764    0.4419   -0.7315 C   0  0  0  0  0  0  0  0  0  0  0  0
    5.4630   -0.3625   -0.9276 C   0  0  0  0  0  0  0  0  0  0  0  0
    3.1568   -0.4295   -0.1179 N   0  0  0  0  0  0  0  0  0  0  0  0
    1.7973    0.1053   -0.2715 C   0  0  0  0  0  0  0  0  0  0  0  0
    0.7744   -0.9578    0.1341 C   0  0  0  0  0  0  0  0  0  0  0  0
   -0.5918   -0.4568   -0.0180 N   0  0  0  0  0  0  0  0  0  0  0  0
   -1.7254   -1.2807    0.2972 C   0  0  0  0  0  0  0  0  0  0  0  0
   -1.5509   -2.5022    0.5611 O   0  0  0  0  0  0  0  0  0  0  0  0
   -3.1011   -0.7266    0.3001 C   0  0  0  0  0  0  0  0  0  0  0  0
   -3.3347    0.6428    0.5278 C   0  0  0  0  0  0  0  0  0  0  0  0
   -4.6388    1.1476    0.5337 C   0  0  0  0  0  0  0  0  0  0  0  0
   -5.7269    0.2925    0.3194 C   0  0  0  0  0  0  0  0  0  0  0  0
   -5.5046   -1.0701    0.1038 C   0  0  0  0  0  0  0  0  0  0  0  0
   -4.2024   -1.5790    0.0982 C   0  0  0  0  0  0  0  0  0  0  0  0
   -7.0298    0.7855    0.3220 O   0  0  0  0  0  0  0  0  0  0  0  0
    3.5549    2.3314    0.1869 H   0  0  0  0  0  0  0  0  0  0  0  0
    5.2667    2.2945   -0.3376 H   0  0  0  0  0  0  0  0  0  0  0  0
    4.7695    1.4016    1.1505 H   0  0  0  0  0  0  0  0  0  0  0  0
    3.8425    0.7722   -1.7411 H   0  0  0  0  0  0  0  0  0  0  0  0
    6.2323    0.2566   -1.4369 H   0  0  0  0  0  0  0  0  0  0  0  0
    5.8631   -0.7038    0.0514 H   0  0  0  0  0  0  0  0  0  0  0  0
    5.2581   -1.2531   -1.5592 H   0  0  0  0  0  0  0  0  0  0  0  0
    3.3625   -0.5473    0.9029 H   0  0  0  0  0  0  0  0  0  0  0  0
    1.6091    0.3854   -1.3319 H   0  0  0  0  0  0  0  0  0  0  0  0
    1.6590    1.0023    0.3712 H   0  0  0  0  0  0  0  0  0  0  0  0
    0.9417   -1.2438    1.1954 H   0  0  0  0  0  0  0  0  0  0  0  0
    0.9098   -1.8579   -0.5044 H   0  0  0  0  0  0  0  0  0  0  0  0
   -0.7451    0.5017   -0.4043 H   0  0  0  0  0  0  0  0  0  0  0  0
   -2.5181    1.3235    0.7269 H   0  0  0  0  0  0  0  0  0  0  0  0
   -4.8026    2.2028    0.7120 H   0  0  0  0  0  0  0  0  0  0  0  0
   -6.3422   -1.7363   -0.0598 H   0  0  0  0  0  0  0  0  0  0  0  0
   -4.0560   -2.6379   -0.0754 H   0  0  0  0  0  0  0  0  0  0  0  0
   -7.2237    1.7681    0.4764 H   0  0  0  0  0  0  0  0  0  0  0  0
  1  2  1  0
  2  3  1  0
  2  4  1  0
  4  5  1  0
  5  6  1  0
  6  7  1  0
  7  8  1  0
  8  9  2  0
  8 10  1  0
 10 11  1  0
 11 12  2  0
 12 13  1  0
 13 14  2  0
 14 15  1  0
 13 16  1  0
 15 10  2  0
  1 17  1  0
  1 18  1  0
  1 19  1  0
  2 20  1  0
  3 21  1  0
  3 22  1  0
  3 23  1  0
  4 24  1  0
  5 25  1  0
  5 26  1  0
  6 27  1  0
  6 28  1  0
  7 29  1  0
 11 30  1  0
 12 31  1  0
 14 32  1  0
 15 33  1  0
 16 34  1  0
M  END
$$$$
