
     RDKit          3D

 31 33  0  0  0  0  0  0  0  0999 V2000
    4.0811   -1.2234   -0.2695 C   0  0  0  0  0  0  0  0  0  0  0  0
    2.6999   -1.3829   -0.1349 C   0  0  0  0  0  0  0  0  0  0  0  0
    1.8653   -0.2667    0.0694 C   0  0  0  0  0  0  0  0  0  0  0  0
    2.4465    1.0190    0.1267 C   0  0  0  0  0  0  0  0  0  0  0  0
    3.8345    1.1681   -0.0126 C   0  0  0  0  0  0  0  0  0  0  0  0
    4.6516    0.0522   -0.2083 C   0  0  0  0  0  0  0  0  0  0  0  0
    6.0278    0.2222   -0.3423 O   0  0  0  0  0  0  0  0  0  0  0  0
    1.6503    2.1454    0.3366 O   0  0  0  0  0  0  0  0  0  0  0  0
    0.3953   -0.4379    0.1927 C   0  0  0  0  0  0  0  0  0  0  0  0
   -0.1584   -1.5613    0.8200 C   0  0  0  0  0  0  0  0  0  0  0  0
   -1.5450   -1.6871    0.9119 C   0  0  0  0  0  0  0  0  0  0  0  0
   -2.0116   -2.6754    1.5354 O   0  0  0  0  0  0  0  0  0  0  0  0
   -2.3801   -0.6964    0.3420 C   0  0  0  0  0  0  0  0  0  0  0  0
   -3.8066   -0.7387    0.3401 C   0  0  0  0  0  0  0  0  0  0  0  0
   -4.5285    0.3552   -0.1534 C   0  0  0  0  0  0  0  0  0  0  0  0
   -3.8782    1.4614   -0.6988 C   0  0  0  0  0  0  0  0  0  0  0  0
   -2.4839    1.4903   -0.7509 C   0  0  0  0  0  0  0  0  0  0  0  0
   -1.7349    0.4301   -0.2353 C   0  0  0  0  0  0  0  0  0  0  0  0
   -0.4091    0.5027   -0.2902 O   0  0  0  0  0  0  0  0  0  0  0  0
   -4.6295    2.5250   -1.1943 O   0  0  0  0  0  0  0  0  0  0  0  0
   -4.5567   -1.8316    0.7844 O   0  0  0  0  0  0  0  0  0  0  0  0
    4.7065   -2.0927   -0.4289 H   0  0  0  0  0  0  0  0  0  0  0  0
    2.2847   -2.3793   -0.2150 H   0  0  0  0  0  0  0  0  0  0  0  0
    4.2804    2.1538    0.0348 H   0  0  0  0  0  0  0  0  0  0  0  0
    6.6474   -0.5668   -0.4858 H   0  0  0  0  0  0  0  0  0  0  0  0
    2.0474    3.0764    0.3851 H   0  0  0  0  0  0  0  0  0  0  0  0
    0.4769   -2.3164    1.2672 H   0  0  0  0  0  0  0  0  0  0  0  0
   -5.6114    0.3315   -0.1380 H   0  0  0  0  0  0  0  0  0  0  0  0
   -1.9776    2.3452   -1.1824 H   0  0  0  0  0  0  0  0  0  0  0  0
   -4.1881    3.3424   -1.5993 H   0  0  0  0  0  0  0  0  0  0  0  0
   -4.1960   -2.7642    0.9151 H   0  0  0  0  0  0  0  0  0  0  0  0
  1  2  2  0
  2  3  1  0
  3  4  2  0
  4  5  1  0
  5  6  2  0
  6  7  1  0
  4  8  1  0
  3  9  1  0
  9 10  2  0
 10 11  1  0
 11 12  2  0
 11 13  1  0
 13 14  2  0
 14 15  1  0
 15 16  2  0
 16 17  1  0
 17 18  2  0
 18 19  1  0
 16 20  1  0
 14 21  1  0
  6  1  1  0
 19  9  1  0
 18 13  1  0
  1 22  1  0
  2 23  1  0
  5 24  1  0
  7 25  1  0
  8 26  1  0
 10 27  1  0
 15 28  1  0
 17 29  1  0
 20 30  1  0
 21 31  1  0
M  END
$$$$
