
     RDKit          3D

 30 32  0  0  0  0  0  0  0  0999 V2000
    2.5842    0.6817    0.5281 C   0  0  0  0  0  0  0  0  0  0  0  0
    3.9782    0.7854    0.5471 C   0  0  0  0  0  0  0  0  0  0  0  0
    4.7648   -0.1792   -0.0941 C   0  0  0  0  0  0  0  0  0  0  0  0
    4.1500   -1.2448   -0.7567 C   0  0  0  0  0  0  0  0  0  0  0  0
    2.7560   -1.3529   -0.7773 C   0  0  0  0  0  0  0  0  0  0  0  0
    1.9554   -0.3944   -0.1245 C   0  0  0  0  0  0  0  0  0  0  0  0
    0.4729   -0.4759   -0.1376 C   0  0  0  0  0  0  0  0  0  0  0  0
   -0.2003   -1.6996   -0.2563 C   0  0  0  0  0  0  0  0  0  0  0  0
   -1.5956   -1.7219   -0.2646 C   0  0  0  0  0  0  0  0  0  0  0  0
   -2.1714   -2.8398   -0.3096 O   0  0  0  0  0  0  0  0  0  0  0  0
   -2.3190   -0.5081   -0.1852 C   0  0  0  0  0  0  0  0  0  0  0  0
   -3.7418   -0.4061   -0.2257 C   0  0  0  0  0  0  0  0  0  0  0  0
   -4.3503    0.8386   -0.0214 C   0  0  0  0  0  0  0  0  0  0  0  0
   -3.5856    1.9936    0.1615 C   0  0  0  0  0  0  0  0  0  0  0  0
   -2.1953    1.9124    0.1488 C   0  0  0  0  0  0  0  0  0  0  0  0
   -1.5589    0.6802   -0.0181 C   0  0  0  0  0  0  0  0  0  0  0  0
   -0.2305    0.6444   -0.0094 O   0  0  0  0  0  0  0  0  0  0  0  0
   -4.1998    3.2300    0.3489 O   0  0  0  0  0  0  0  0  0  0  0  0
   -4.5951   -1.4825   -0.4861 O   0  0  0  0  0  0  0  0  0  0  0  0
    6.1546   -0.0861   -0.0815 O   0  0  0  0  0  0  0  0  0  0  0  0
    1.9976    1.4381    1.0348 H   0  0  0  0  0  0  0  0  0  0  0  0
    4.4456    1.6162    1.0604 H   0  0  0  0  0  0  0  0  0  0  0  0
    4.7535   -1.9874   -1.2632 H   0  0  0  0  0  0  0  0  0  0  0  0
    2.3124   -2.1729   -1.3255 H   0  0  0  0  0  0  0  0  0  0  0  0
    0.3438   -2.6345   -0.3007 H   0  0  0  0  0  0  0  0  0  0  0  0
   -5.4310    0.9107   -0.0339 H   0  0  0  0  0  0  0  0  0  0  0  0
   -1.6046    2.8106    0.2816 H   0  0  0  0  0  0  0  0  0  0  0  0
   -5.2087    3.3243    0.3611 H   0  0  0  0  0  0  0  0  0  0  0  0
   -4.3113   -2.3552   -0.9043 H   0  0  0  0  0  0  0  0  0  0  0  0
    6.6300    0.6751    0.3892 H   0  0  0  0  0  0  0  0  0  0  0  0
  1  2  2  0
  2  3  1  0
  3  4  2  0
  4  5  1  0
  5  6  2  0
  6  7  1  0
  7  8  2  0
  8  9  1  0
  9 10  2  0
  9 11  1  0
 11 12  2  0
 12 13  1  0
 13 14  2  0
 14 15  1  0
 15 16  2  0
 16 17  1  0
 14 18  1  0
 12 19  1  0
  3 20  1  0
  6  1  1  0
 17  7  1  0
 16 11  1  0
  1 21  1  0
  2 22  1  0
  4 23  1  0
  5 24  1  0
  8 25  1  0
 13 26  1  0
 15 27  1  0
 18 28  1  0
 19 29  1  0
 20 30  1  0
M  END
$$$$
