
     RDKit          3D

 31 33  0  0  0  0  0  0  0  0999 V2000
   -2.4020   -2.1213    2.0177 O   0  0  0  0  0  0  0  0  0  0  0  0
   -1.8127   -1.3403    1.2266 C   0  0  0  0  0  0  0  0  0  0  0  0
   -0.4218   -1.4152    1.1414 C   0  0  0  0  0  0  0  0  0  0  0  0
    0.2721   -0.5142    0.3219 C   0  0  0  0  0  0  0  0  0  0  0  0
    1.7511   -0.5501    0.1936 C   0  0  0  0  0  0  0  0  0  0  0  0
    2.4795   -1.7427    0.3651 C   0  0  0  0  0  0  0  0  0  0  0  0
    3.8700   -1.7493    0.2283 C   0  0  0  0  0  0  0  0  0  0  0  0
    4.5563   -0.5739   -0.0882 C   0  0  0  0  0  0  0  0  0  0  0  0
    5.9443   -0.6125   -0.2165 O   0  0  0  0  0  0  0  0  0  0  0  0
    3.8421    0.6206   -0.2746 C   0  0  0  0  0  0  0  0  0  0  0  0
    4.5196    1.7962   -0.5945 O   0  0  0  0  0  0  0  0  0  0  0  0
    2.4462    0.6266   -0.1381 C   0  0  0  0  0  0  0  0  0  0  0  0
   -0.4055    0.4155   -0.3434 O   0  0  0  0  0  0  0  0  0  0  0  0
   -1.7291    0.5264   -0.3032 C   0  0  0  0  0  0  0  0  0  0  0  0
   -2.3355    1.5578   -1.0242 C   0  0  0  0  0  0  0  0  0  0  0  0
   -3.7215    1.7192   -0.9967 C   0  0  0  0  0  0  0  0  0  0  0  0
   -4.3295    2.7578   -1.6987 O   0  0  0  0  0  0  0  0  0  0  0  0
   -4.5084    0.8289   -0.2671 C   0  0  0  0  0  0  0  0  0  0  0  0
   -3.9332   -0.2357    0.4379 C   0  0  0  0  0  0  0  0  0  0  0  0
   -4.8174   -1.1200    1.0631 O   0  0  0  0  0  0  0  0  0  0  0  0
   -2.5134   -0.3775    0.4618 C   0  0  0  0  0  0  0  0  0  0  0  0
    0.1066   -2.1440    1.7429 H   0  0  0  0  0  0  0  0  0  0  0  0
    1.9798   -2.6775    0.5800 H   0  0  0  0  0  0  0  0  0  0  0  0
    4.4165   -2.6744    0.3621 H   0  0  0  0  0  0  0  0  0  0  0  0
    6.4867    0.2118   -0.4455 H   0  0  0  0  0  0  0  0  0  0  0  0
    4.0281    2.6713   -0.7343 H   0  0  0  0  0  0  0  0  0  0  0  0
    1.9071    1.5555   -0.2800 H   0  0  0  0  0  0  0  0  0  0  0  0
   -1.7237    2.2432   -1.5981 H   0  0  0  0  0  0  0  0  0  0  0  0
   -3.7868    3.4202   -2.2406 H   0  0  0  0  0  0  0  0  0  0  0  0
   -5.5850    0.9480   -0.2704 H   0  0  0  0  0  0  0  0  0  0  0  0
   -4.5805   -2.0503    1.3718 H   0  0  0  0  0  0  0  0  0  0  0  0
  1  2  2  0
  2  3  1  0
  3  4  2  0
  4  5  1  0
  5  6  1  0
  6  7  2  0
  7  8  1  0
  8  9  1  0
  8 10  2  0
 10 11  1  0
 10 12  1  0
  4 13  1  0
 13 14  1  0
 14 15  2  0
 15 16  1  0
 16 17  1  0
 16 18  2  0
 18 19  1  0
 19 20  1  0
 19 21  2  0
 21  2  1  0
 12  5  2  0
 21 14  1  0
  3 22  1  0
  6 23  1  0
  7 24  1  0
  9 25  1  0
 11 26  1  0
 12 27  1  0
 15 28  1  0
 17 29  1  0
 18 30  1  0
 20 31  1  0
M  END
$$$$
