
     RDKit          3D

 37 38  0  0  0  0  0  0  0  0999 V2000
    5.4729    2.4359   -1.5507 C   0  0  0  0  0  0  0  0  0  0  0  0
    4.1772    2.1528   -1.0323 O   0  0  0  0  0  0  0  0  0  0  0  0
    3.7782    0.9053   -0.5256 C   0  0  0  0  0  0  0  0  0  0  0  0
    4.6524   -0.1962   -0.4831 C   0  0  0  0  0  0  0  0  0  0  0  0
    4.2159   -1.4218    0.0173 C   0  0  0  0  0  0  0  0  0  0  0  0
    2.9123   -1.5627    0.4903 C   0  0  0  0  0  0  0  0  0  0  0  0
    2.0248   -0.4735    0.4770 C   0  0  0  0  0  0  0  0  0  0  0  0
    2.4616    0.7665   -0.0553 C   0  0  0  0  0  0  0  0  0  0  0  0
    1.6164    1.8767   -0.1389 O   0  0  0  0  0  0  0  0  0  0  0  0
    0.6194   -0.6782    0.9915 C   0  0  0  0  0  0  0  0  0  0  0  0
   -0.3440   -0.9840   -0.1602 C   0  0  0  0  0  0  0  0  0  0  0  0
   -1.7098   -1.1542    0.3338 N   0  0  0  0  0  0  0  0  0  0  0  0
   -2.7936   -1.4577   -0.5536 C   0  0  0  0  0  0  0  0  0  0  0  0
   -2.5863   -1.5857   -1.7909 O   0  0  0  0  0  0  0  0  0  0  0  0
   -4.1875   -1.5813   -0.0220 C   0  0  0  0  0  0  0  0  0  0  0  0
   -4.7824   -0.2225    0.1715 C   0  0  0  0  0  0  0  0  0  0  0  0
   -5.4560    0.5191   -0.7729 C   0  0  0  0  0  0  0  0  0  0  0  0
   -5.7735    1.7188   -0.2464 N   0  0  0  0  0  0  0  0  0  0  0  0
   -5.2743    1.6767    1.0082 C   0  0  0  0  0  0  0  0  0  0  0  0
   -4.6599    0.5121    1.2876 N   0  0  0  0  0  0  0  0  0  0  0  0
    5.5081    3.4947   -1.8792 H   0  0  0  0  0  0  0  0  0  0  0  0
    5.6850    1.7851   -2.4248 H   0  0  0  0  0  0  0  0  0  0  0  0
    6.2412    2.2820   -0.7639 H   0  0  0  0  0  0  0  0  0  0  0  0
    5.6698   -0.1167   -0.8402 H   0  0  0  0  0  0  0  0  0  0  0  0
    4.8920   -2.2668    0.0405 H   0  0  0  0  0  0  0  0  0  0  0  0
    2.5951   -2.5254    0.8720 H   0  0  0  0  0  0  0  0  0  0  0  0
    0.6423    1.8622    0.1296 H   0  0  0  0  0  0  0  0  0  0  0  0
    0.5972   -1.5258    1.7121 H   0  0  0  0  0  0  0  0  0  0  0  0
    0.2783    0.2129    1.5588 H   0  0  0  0  0  0  0  0  0  0  0  0
   -0.3258   -0.1524   -0.8976 H   0  0  0  0  0  0  0  0  0  0  0  0
   -0.0213   -1.9177   -0.6709 H   0  0  0  0  0  0  0  0  0  0  0  0
   -1.9144   -1.0442    1.3533 H   0  0  0  0  0  0  0  0  0  0  0  0
   -4.1708   -2.1233    0.9478 H   0  0  0  0  0  0  0  0  0  0  0  0
   -4.8148   -2.1686   -0.7276 H   0  0  0  0  0  0  0  0  0  0  0  0
   -5.6925    0.2130   -1.7834 H   0  0  0  0  0  0  0  0  0  0  0  0
   -5.3522    2.4967    1.7103 H   0  0  0  0  0  0  0  0  0  0  0  0
   -4.1809    0.2480    2.1773 H   0  0  0  0  0  0  0  0  0  0  0  0
  1  2  1  0
  2  3  1  0
  3  4  1  0
  4  5  2  0
  5  6  1  0
  6  7  2  0
  7  8  1  0
  8  9  1  0
  7 10  1  0
 10 11  1  0
 11 12  1  0
 12 13  1  0
 13 14  2  0
 13 15  1  0
 15 16  1  0
 16 17  2  0
 17 18  1  0
 18 19  2  0
 19 20  1  0
  8  3  2  0
 20 16  1  0
  1 21  1  0
  1 22  1  0
  1 23  1  0
  4 24  1  0
  5 25  1  0
  6 26  1  0
  9 27  1  0
 10 28  1  0
 10 29  1  0
 11 30  1  0
 11 31  1  0
 12 32  1  0
 15 33  1  0
 15 34  1  0
 17 35  1  0
 19 36  1  0
 20 37  1  0
M  END
$$$$
