
     RDKit          3D

 33 34  0  0  0  0  0  0  0  0999 V2000
   -1.3468    1.5193   -2.4854 C   0  0  0  0  0  0  0  0  0  0  0  0
   -1.1017    0.9826   -1.1904 O   0  0  0  0  0  0  0  0  0  0  0  0
   -1.9719    0.1133   -0.5171 C   0  0  0  0  0  0  0  0  0  0  0  0
   -3.2074   -0.3085   -1.0666 C   0  0  0  0  0  0  0  0  0  0  0  0
   -4.0483   -1.1888   -0.3531 C   0  0  0  0  0  0  0  0  0  0  0  0
   -3.6737   -1.6636    0.9142 C   0  0  0  0  0  0  0  0  0  0  0  0
   -2.4561   -1.2357    1.4378 C   0  0  0  0  0  0  0  0  0  0  0  0
   -1.6330   -0.3757    0.7515 C   0  0  0  0  0  0  0  0  0  0  0  0
   -0.5207   -0.1744    1.5549 C   0  0  0  0  0  0  0  0  0  0  0  0
   -0.7289   -0.9481    2.6922 C   0  0  0  0  0  0  0  0  0  0  0  0
   -1.9165   -1.5879    2.6173 N   0  0  0  0  0  0  0  0  0  0  0  0
    0.7121    0.6262    1.2520 C   0  0  0  0  0  0  0  0  0  0  0  0
    1.6678   -0.1683    0.3576 C   0  0  0  0  0  0  0  0  0  0  0  0
    2.8602    0.6174    0.0421 N   0  0  0  0  0  0  0  0  0  0  0  0
    3.9025    0.0926   -0.7889 C   0  0  0  0  0  0  0  0  0  0  0  0
    3.8063   -1.0661   -1.2771 O   0  0  0  0  0  0  0  0  0  0  0  0
    5.1009    0.9288   -1.0993 C   0  0  0  0  0  0  0  0  0  0  0  0
   -1.4379    0.6982   -3.2276 H   0  0  0  0  0  0  0  0  0  0  0  0
   -2.2733    2.1313   -2.4759 H   0  0  0  0  0  0  0  0  0  0  0  0
   -0.4949    2.1678   -2.7755 H   0  0  0  0  0  0  0  0  0  0  0  0
   -3.5272    0.0345   -2.0410 H   0  0  0  0  0  0  0  0  0  0  0  0
   -4.9887   -1.5033   -0.7869 H   0  0  0  0  0  0  0  0  0  0  0  0
   -4.3114   -2.3434    1.4643 H   0  0  0  0  0  0  0  0  0  0  0  0
   -0.0433   -1.0444    3.5241 H   0  0  0  0  0  0  0  0  0  0  0  0
   -2.3227   -2.2354    3.3288 H   0  0  0  0  0  0  0  0  0  0  0  0
    0.4285    1.5797    0.7588 H   0  0  0  0  0  0  0  0  0  0  0  0
    1.2268    0.8818    2.2038 H   0  0  0  0  0  0  0  0  0  0  0  0
    1.1532   -0.4440   -0.5884 H   0  0  0  0  0  0  0  0  0  0  0  0
    1.9728   -1.1008    0.8811 H   0  0  0  0  0  0  0  0  0  0  0  0
    2.9648    1.5862    0.4218 H   0  0  0  0  0  0  0  0  0  0  0  0
    5.5442    1.3106   -0.1560 H   0  0  0  0  0  0  0  0  0  0  0  0
    4.7983    1.7871   -1.7346 H   0  0  0  0  0  0  0  0  0  0  0  0
    5.8661    0.3309   -1.6386 H   0  0  0  0  0  0  0  0  0  0  0  0
  1  2  1  0
  2  3  1  0
  3  4  1  0
  4  5  2  0
  5  6  1  0
  6  7  2  0
  7  8  1  0
  8  9  1  0
  9 10  2  0
 10 11  1  0
  9 12  1  0
 12 13  1  0
 13 14  1  0
 14 15  1  0
 15 16  2  0
 15 17  1  0
  8  3  2  0
 11  7  1  0
  1 18  1  0
  1 19  1  0
  1 20  1  0
  4 21  1  0
  5 22  1  0
  6 23  1  0
 10 24  1  0
 11 25  1  0
 12 26  1  0
 12 27  1  0
 13 28  1  0
 13 29  1  0
 14 30  1  0
 17 31  1  0
 17 32  1  0
 17 33  1  0
M  END
$$$$
