
     RDKit          3D

 47 48  0  0  0  0  0  0  0  0999 V2000
   -6.9311    1.2676    2.1044 C   0  0  0  0  0  0  0  0  0  0  0  0
   -6.8383    0.0112    1.4403 O   0  0  0  0  0  0  0  0  0  0  0  0
   -5.7061   -0.4389    0.7426 C   0  0  0  0  0  0  0  0  0  0  0  0
   -5.7528   -1.7051    0.1440 C   0  0  0  0  0  0  0  0  0  0  0  0
   -6.9056   -2.4802    0.2598 O   0  0  0  0  0  0  0  0  0  0  0  0
   -4.6484   -2.1860   -0.5690 C   0  0  0  0  0  0  0  0  0  0  0  0
   -3.4926   -1.4124   -0.6834 C   0  0  0  0  0  0  0  0  0  0  0  0
   -3.4165   -0.1496   -0.0769 C   0  0  0  0  0  0  0  0  0  0  0  0
   -4.5366    0.3394    0.6251 C   0  0  0  0  0  0  0  0  0  0  0  0
   -2.1693    0.6379   -0.2338 C   0  0  0  0  0  0  0  0  0  0  0  0
   -1.7842    1.5949    0.6234 C   0  0  0  0  0  0  0  0  0  0  0  0
   -0.5285    2.3650    0.4812 C   0  0  0  0  0  0  0  0  0  0  0  0
   -0.2422    3.2074    1.3737 O   0  0  0  0  0  0  0  0  0  0  0  0
    0.4366    2.1708   -0.6588 C   0  0  0  0  0  0  0  0  0  0  0  0
    1.2659    0.9341   -0.4589 C   0  0  0  0  0  0  0  0  0  0  0  0
    1.8736    0.7732    0.6345 O   0  0  0  0  0  0  0  0  0  0  0  0
    1.3451   -0.0870   -1.5292 C   0  0  0  0  0  0  0  0  0  0  0  0
    2.2713   -1.0550   -1.6186 C   0  0  0  0  0  0  0  0  0  0  0  0
    3.4807   -1.1629   -0.7767 C   0  0  0  0  0  0  0  0  0  0  0  0
    4.3421   -0.0669   -0.5970 C   0  0  0  0  0  0  0  0  0  0  0  0
    5.5135   -0.1964    0.1751 C   0  0  0  0  0  0  0  0  0  0  0  0
    5.8287   -1.4401    0.7411 C   0  0  0  0  0  0  0  0  0  0  0  0
    4.9872   -2.5409    0.5331 C   0  0  0  0  0  0  0  0  0  0  0  0
    3.8257   -2.4051   -0.2297 C   0  0  0  0  0  0  0  0  0  0  0  0
    6.9853   -1.5751    1.5072 O   0  0  0  0  0  0  0  0  0  0  0  0
    6.3846    0.8815    0.3987 O   0  0  0  0  0  0  0  0  0  0  0  0
    6.1797    2.1995   -0.0999 C   0  0  0  0  0  0  0  0  0  0  0  0
   -6.1548    1.3400    2.8953 H   0  0  0  0  0  0  0  0  0  0  0  0
   -7.9300    1.3538    2.5788 H   0  0  0  0  0  0  0  0  0  0  0  0
   -6.8125    2.0955    1.3738 H   0  0  0  0  0  0  0  0  0  0  0  0
   -6.9714   -3.3995   -0.1613 H   0  0  0  0  0  0  0  0  0  0  0  0
   -4.6850   -3.1620   -1.0360 H   0  0  0  0  0  0  0  0  0  0  0  0
   -2.6499   -1.8060   -1.2391 H   0  0  0  0  0  0  0  0  0  0  0  0
   -4.5116    1.3290    1.0559 H   0  0  0  0  0  0  0  0  0  0  0  0
   -1.5285    0.3752   -1.0629 H   0  0  0  0  0  0  0  0  0  0  0  0
   -2.3885    1.8146    1.4931 H   0  0  0  0  0  0  0  0  0  0  0  0
    1.1223    3.0436   -0.7176 H   0  0  0  0  0  0  0  0  0  0  0  0
   -0.1170    2.1381   -1.6212 H   0  0  0  0  0  0  0  0  0  0  0  0
    0.5630   -0.0829   -2.2783 H   0  0  0  0  0  0  0  0  0  0  0  0
    2.1309   -1.8170   -2.3761 H   0  0  0  0  0  0  0  0  0  0  0  0
    4.0971    0.8774   -1.0648 H   0  0  0  0  0  0  0  0  0  0  0  0
    5.2343   -3.5039    0.9614 H   0  0  0  0  0  0  0  0  0  0  0  0
    3.1888   -3.2676   -0.3851 H   0  0  0  0  0  0  0  0  0  0  0  0
    7.2410   -2.4597    1.9303 H   0  0  0  0  0  0  0  0  0  0  0  0
    7.0130    2.8487    0.2386 H   0  0  0  0  0  0  0  0  0  0  0  0
    6.1654    2.1898   -1.2102 H   0  0  0  0  0  0  0  0  0  0  0  0
    5.2256    2.6119    0.2917 H   0  0  0  0  0  0  0  0  0  0  0  0
  1  2  1  0
  2  3  1  0
  3  4  2  0
  4  5  1  0
  4  6  1  0
  6  7  2  0
  7  8  1  0
  8  9  2  0
  8 10  1  0
 10 11  2  3
 11 12  1  0
 12 13  2  0
 12 14  1  0
 14 15  1  0
 15 16  2  0
 15 17  1  0
 17 18  2  3
 18 19  1  0
 19 20  2  0
 20 21  1  0
 21 22  2  0
 22 23  1  0
 23 24  2  0
 22 25  1  0
 21 26  1  0
 26 27  1  0
  9  3  1  0
 24 19  1  0
  1 28  1  0
  1 29  1  0
  1 30  1  0
  5 31  1  0
  6 32  1  0
  7 33  1  0
  9 34  1  0
 10 35  1  0
 11 36  1  0
 14 37  1  0
 14 38  1  0
 17 39  1  0
 18 40  1  0
 20 41  1  0
 23 42  1  0
 24 43  1  0
 25 44  1  0
 27 45  1  0
 27 46  1  0
 27 47  1  0
M  END
$$$$
