
     RDKit          3D

 28 29  0  0  0  0  0  0  0  0999 V2000
    2.5184   -0.7533    1.2818 C   0  0  0  0  0  0  0  0  0  0  0  0
    3.9156   -0.7070    1.2914 C   0  0  0  0  0  0  0  0  0  0  0  0
    4.6091   -0.1635    0.2034 C   0  0  0  0  0  0  0  0  0  0  0  0
    3.8984    0.3282   -0.8947 C   0  0  0  0  0  0  0  0  0  0  0  0
    2.5006    0.2846   -0.9081 C   0  0  0  0  0  0  0  0  0  0  0  0
    1.7930   -0.2466    0.1900 C   0  0  0  0  0  0  0  0  0  0  0  0
    0.3114   -0.3285    0.2236 C   0  0  0  0  0  0  0  0  0  0  0  0
   -0.4945    0.4548   -0.5109 C   0  0  0  0  0  0  0  0  0  0  0  0
   -1.9759    0.3720   -0.4767 C   0  0  0  0  0  0  0  0  0  0  0  0
   -2.6828   -0.1470    0.6282 C   0  0  0  0  0  0  0  0  0  0  0  0
   -4.0849   -0.1924    0.6164 C   0  0  0  0  0  0  0  0  0  0  0  0
   -4.7879    0.2861   -0.4925 C   0  0  0  0  0  0  0  0  0  0  0  0
   -4.0978    0.8175   -1.5833 C   0  0  0  0  0  0  0  0  0  0  0  0
   -2.7012    0.8660   -1.5743 C   0  0  0  0  0  0  0  0  0  0  0  0
   -4.7878   -0.7066    1.7039 O   0  0  0  0  0  0  0  0  0  0  0  0
    6.0011   -0.1116    0.2018 O   0  0  0  0  0  0  0  0  0  0  0  0
    2.0018   -1.1780    2.1341 H   0  0  0  0  0  0  0  0  0  0  0  0
    4.4577   -1.0949    2.1445 H   0  0  0  0  0  0  0  0  0  0  0  0
    4.4307    0.7382   -1.7437 H   0  0  0  0  0  0  0  0  0  0  0  0
    1.9882    0.6438   -1.7894 H   0  0  0  0  0  0  0  0  0  0  0  0
   -0.1191   -1.0571    0.8969 H   0  0  0  0  0  0  0  0  0  0  0  0
   -0.0647    1.1826   -1.1854 H   0  0  0  0  0  0  0  0  0  0  0  0
   -2.1631   -0.4927    1.5107 H   0  0  0  0  0  0  0  0  0  0  0  0
   -5.8700    0.2523   -0.5053 H   0  0  0  0  0  0  0  0  0  0  0  0
   -4.6459    1.1934   -2.4377 H   0  0  0  0  0  0  0  0  0  0  0  0
   -2.1849    1.2817   -2.4312 H   0  0  0  0  0  0  0  0  0  0  0  0
   -4.3101   -1.0609    2.5244 H   0  0  0  0  0  0  0  0  0  0  0  0
    6.5449   -0.4612    0.9822 H   0  0  0  0  0  0  0  0  0  0  0  0
  1  2  2  0
  2  3  1  0
  3  4  2  0
  4  5  1  0
  5  6  2  0
  6  7  1  0
  7  8  2  3
  8  9  1  0
  9 10  1  0
 10 11  2  0
 11 12  1  0
 12 13  2  0
 13 14  1  0
 11 15  1  0
  3 16  1  0
  6  1  1  0
 14  9  2  0
  1 17  1  0
  2 18  1  0
  4 19  1  0
  5 20  1  0
  7 21  1  0
  8 22  1  0
 10 23  1  0
 12 24  1  0
 13 25  1  0
 14 26  1  0
 15 27  1  0
 16 28  1  0
M  END
$$$$
