
     RDKit          3D

 32 34  0  0  0  0  0  0  0  0999 V2000
    2.0388   -2.7782   -1.4903 O   0  0  0  0  0  0  0  0  0  0  0  0
    1.5744   -1.7567   -0.9198 C   0  0  0  0  0  0  0  0  0  0  0  0
    0.1819   -1.5810   -0.8807 C   0  0  0  0  0  0  0  0  0  0  0  0
   -0.6748   -2.5306   -1.4443 O   0  0  0  0  0  0  0  0  0  0  0  0
   -0.3417   -0.4133   -0.2990 C   0  0  0  0  0  0  0  0  0  0  0  0
   -1.7988   -0.1683   -0.1984 C   0  0  0  0  0  0  0  0  0  0  0  0
   -2.6851   -1.1822    0.2051 C   0  0  0  0  0  0  0  0  0  0  0  0
   -4.0532   -0.9213    0.3163 C   0  0  0  0  0  0  0  0  0  0  0  0
   -4.5551    0.3542    0.0409 C   0  0  0  0  0  0  0  0  0  0  0  0
   -5.9255    0.5838    0.1588 O   0  0  0  0  0  0  0  0  0  0  0  0
   -3.6764    1.3808   -0.3434 C   0  0  0  0  0  0  0  0  0  0  0  0
   -4.1686    2.6570   -0.6126 O   0  0  0  0  0  0  0  0  0  0  0  0
   -2.3032    1.1173   -0.4540 C   0  0  0  0  0  0  0  0  0  0  0  0
    0.4837    0.5221    0.1557 O   0  0  0  0  0  0  0  0  0  0  0  0
    1.8058    0.4029    0.1388 C   0  0  0  0  0  0  0  0  0  0  0  0
    2.5778    1.4625    0.6215 C   0  0  0  0  0  0  0  0  0  0  0  0
    3.9711    1.3835    0.6116 C   0  0  0  0  0  0  0  0  0  0  0  0
    4.7459    2.4455    1.0729 O   0  0  0  0  0  0  0  0  0  0  0  0
    4.5959    0.2279    0.1448 C   0  0  0  0  0  0  0  0  0  0  0  0
    3.8483   -0.8648   -0.3113 C   0  0  0  0  0  0  0  0  0  0  0  0
    4.5688   -2.0087   -0.6675 O   0  0  0  0  0  0  0  0  0  0  0  0
    2.4249   -0.7715   -0.3628 C   0  0  0  0  0  0  0  0  0  0  0  0
   -0.3348   -3.3801   -1.8787 H   0  0  0  0  0  0  0  0  0  0  0  0
   -2.3197   -2.1691    0.4585 H   0  0  0  0  0  0  0  0  0  0  0  0
   -4.7255   -1.7114    0.6262 H   0  0  0  0  0  0  0  0  0  0  0  0
   -6.3372    1.4902   -0.0283 H   0  0  0  0  0  0  0  0  0  0  0  0
   -3.5559    3.4145   -0.8910 H   0  0  0  0  0  0  0  0  0  0  0  0
   -1.6312    1.9136   -0.7512 H   0  0  0  0  0  0  0  0  0  0  0  0
    2.0907    2.3551    0.9946 H   0  0  0  0  0  0  0  0  0  0  0  0
    4.3231    3.2979    1.4214 H   0  0  0  0  0  0  0  0  0  0  0  0
    5.6770    0.1649    0.1646 H   0  0  0  0  0  0  0  0  0  0  0  0
    4.1783   -2.9364   -0.7337 H   0  0  0  0  0  0  0  0  0  0  0  0
  1  2  2  0
  2  3  1  0
  3  4  1  0
  3  5  2  0
  5  6  1  0
  6  7  1  0
  7  8  2  0
  8  9  1  0
  9 10  1  0
  9 11  2  0
 11 12  1  0
 11 13  1  0
  5 14  1  0
 14 15  1  0
 15 16  2  0
 16 17  1  0
 17 18  1  0
 17 19  2  0
 19 20  1  0
 20 21  1  0
 20 22  2  0
 22  2  1  0
 13  6  2  0
 22 15  1  0
  4 23  1  0
  7 24  1  0
  8 25  1  0
 10 26  1  0
 12 27  1  0
 13 28  1  0
 16 29  1  0
 18 30  1  0
 19 31  1  0
 21 32  1  0
M  END
$$$$
