
     RDKit          3D

 29 30  0  0  0  0  0  0  0  0999 V2000
    6.2188    0.2329   -0.2527 O   0  0  0  0  0  0  0  0  0  0  0  0
    4.8344    0.0780   -0.2636 C   0  0  0  0  0  0  0  0  0  0  0  0
    3.9900    1.1940   -0.2159 C   0  0  0  0  0  0  0  0  0  0  0  0
    2.6015    1.0279   -0.2260 C   0  0  0  0  0  0  0  0  0  0  0  0
    2.0379   -0.2639   -0.2741 C   0  0  0  0  0  0  0  0  0  0  0  0
    2.8962   -1.3750   -0.3382 C   0  0  0  0  0  0  0  0  0  0  0  0
    4.2837   -1.2045   -0.3271 C   0  0  0  0  0  0  0  0  0  0  0  0
    0.5725   -0.4974   -0.2992 C   0  0  0  0  0  0  0  0  0  0  0  0
   -0.3300    0.3841    0.1603 C   0  0  0  0  0  0  0  0  0  0  0  0
   -1.7953    0.1497    0.1345 C   0  0  0  0  0  0  0  0  0  0  0  0
   -2.6538    1.2611    0.1849 C   0  0  0  0  0  0  0  0  0  0  0  0
   -4.0449    1.0905    0.1721 C   0  0  0  0  0  0  0  0  0  0  0  0
   -4.8956    2.1930    0.2112 O   0  0  0  0  0  0  0  0  0  0  0  0
   -4.5873   -0.1959    0.1201 C   0  0  0  0  0  0  0  0  0  0  0  0
   -3.7454   -1.3143    0.0890 C   0  0  0  0  0  0  0  0  0  0  0  0
   -4.2782   -2.6011    0.0519 O   0  0  0  0  0  0  0  0  0  0  0  0
   -2.3567   -1.1432    0.0999 C   0  0  0  0  0  0  0  0  0  0  0  0
    6.6486    1.1496   -0.2085 H   0  0  0  0  0  0  0  0  0  0  0  0
    4.4086    2.1917   -0.1790 H   0  0  0  0  0  0  0  0  0  0  0  0
    1.9824    1.9139   -0.2221 H   0  0  0  0  0  0  0  0  0  0  0  0
    2.4914   -2.3787   -0.3878 H   0  0  0  0  0  0  0  0  0  0  0  0
    4.9316   -2.0708   -0.3691 H   0  0  0  0  0  0  0  0  0  0  0  0
    0.2388   -1.4446   -0.7005 H   0  0  0  0  0  0  0  0  0  0  0  0
    0.0030    1.3318    0.5606 H   0  0  0  0  0  0  0  0  0  0  0  0
   -2.2431    2.2631    0.2245 H   0  0  0  0  0  0  0  0  0  0  0  0
   -4.5352    3.1393    0.2495 H   0  0  0  0  0  0  0  0  0  0  0  0
   -5.6623   -0.3254    0.1111 H   0  0  0  0  0  0  0  0  0  0  0  0
   -5.2790   -2.7601    0.0447 H   0  0  0  0  0  0  0  0  0  0  0  0
   -1.7324   -2.0258    0.1078 H   0  0  0  0  0  0  0  0  0  0  0  0
  1  2  1  0
  2  3  1  0
  3  4  2  0
  4  5  1  0
  5  6  2  0
  6  7  1  0
  5  8  1  0
  8  9  2  0
  9 10  1  0
 10 11  2  0
 11 12  1  0
 12 13  1  0
 12 14  2  0
 14 15  1  0
 15 16  1  0
 15 17  2  0
  7  2  2  0
 17 10  1  0
  1 18  1  0
  3 19  1  0
  4 20  1  0
  6 21  1  0
  7 22  1  0
  8 23  1  0
  9 24  1  0
 11 25  1  0
 13 26  1  0
 14 27  1  0
 16 28  1  0
 17 29  1  0
M  END
$$$$
